3

O    -3.307   3.534   6.622   
H    -3.197   4.424   6.180   
H    -3.992   2.998   6.128   

3

O     0.663  -6.413  -8.590   
H     0.194  -7.188  -9.015   
H     0.430  -5.573  -9.079   

3

O     0.654  -6.587  10.066   
H     0.208  -7.343   9.587   
H     0.385  -5.720   9.645   

3

O     0.627  11.972  -8.572   
H     0.246  11.235  -9.130   
H     0.325  12.854  -8.934   

3

O     0.665  11.859  10.104   
H     0.270  11.059   9.652   
H     0.371  12.689   9.630   
