    19
 geometry
 I1                   -1.38349339    -0.65832661    -0.38853768
 O1                   -0.94116703    -1.60586931     1.09534665
 O2                   -1.25335234     1.10398075     0.08845044
 O3                    0.00770868    -0.88323933    -1.55687054
 OW                    1.65716767    -0.95699190     2.24144499
 HW                    0.77129624    -1.29804951     1.99794533
 HW                    2.16848351    -1.02596921     1.39874862
 OW                    1.04541769     1.76352705     1.88599313
 HW                    0.20411593     1.63269314     1.40303398
 HW                    1.29555031     0.84868141     2.16778449
 OW                    0.50460261     1.96972250    -2.10251876
 HW                    0.52664511     1.00120548    -2.24051469
 HW                   -0.14133995     2.03146528    -1.36945094
 OW                    2.78273977     1.96713863    -0.33112843
 HW                    2.25843471     2.02395059     0.50478624
 HW                    2.11694590     2.12721216    -1.03448458
 OW                    2.74242936    -0.85248203    -0.35925889
 HW                    2.89057794     0.12460375    -0.39946160
 HW                    1.89104829    -0.98690638    -0.82352824
